ZINC03814459
     RDKit          3D

 17 19  0  0  1  0  0  0  0  0999 V2000
    3.2069    2.4332    0.1683 C   0  0  0  0  0  0  0  0  0  0  0  0
    3.9680    1.3361    0.0191 N   0  0  0  0  0  0  0  0  0  0  0  0
    3.0936    0.2661   -0.0051 C   0  0  0  0  0  0  0  0  0  0  0  0
    1.8080    0.8502    0.1384 C   0  0  0  0  0  0  0  0  0  0  0  0
    1.8933    2.2332    0.2504 N   0  0  0  0  0  0  0  0  0  0  0  0
    0.7321   -0.0685    0.1386 C   0  0  0  0  0  0  0  0  0  0  0  0
    1.0086   -1.3940    0.0148 N   0  0  0  0  0  0  0  0  0  0  0  0
    2.2734   -1.7772   -0.1068 C   0  0  0  0  0  0  0  0  0  0  0  0
    3.3866   -1.0536   -0.1367 N   0  0  0  0  0  0  0  0  0  0  0  0
    2.4572   -3.1158   -0.2204 N   0  0  0  0  0  0  0  0  0  0  0  0
   -0.5735    0.3558    0.2686 O   0  0  0  0  0  0  0  0  0  0  0  0
   -1.5971   -0.6310    0.2422 C   0  0  0  0  0  0  0  0  0  0  0  0
   -2.9575    0.0650    0.3723 C   0  0  0  0  0  0  0  0  0  0  0  0
   -4.1165   -0.8888    0.6548 C   0  0  0  0  0  0  0  0  0  0  0  0
   -5.3322   -0.1496    0.1130 C   0  0  0  0  0  0  0  0  0  0  0  0
   -4.7364    0.9594   -0.7584 C   0  0  0  0  0  0  0  0  0  0  0  0
   -3.3578    0.6367   -0.8635 O   0  0  0  0  0  0  0  0  0  0  0  0
  1  5  2  0
  1  2  1  0
  2  3  1  0
  3  9  1  0
  3  4  2  0
  4  5  1  0
  4  6  1  0
  6  7  2  0
  6 11  1  0
  7  8  1  0
  8  9  2  0
  8 10  1  0
 11 12  1  0
 12 13  1  0
 13 17  1  0
 13 14  1  0
 14 15  1  0
 15 16  1  0
 16 17  1  0
M  END

